Circuit: * C:\Users\choco\OneDrive\Documents\GitHub\Tesis-2022-nervio-vago-artificial\Nervio-Vago-Artificial\Simulaciones\sim-2022\Modified-FitzHugh-Nagumo-Axon\Modified-FitzHugh-Nagumo-Axon.asc

Warning: Multiple definitions of model "2scr375p" Type: BJT
Warning: Multiple definitions of model "bc857b" Type: BJT
Warning: Multiple definitions of model "bc847c" Type: BJT
Warning: Multiple definitions of model "bc847b" Type: BJT
Direct Newton iteration for .op point succeeded.

Date: Thu Aug 25 10:54:33 2022
Total elapsed time: 1.857 seconds.

tnom = 27
temp = 27
method = modified trap
totiter = 28778
traniter = 28753
tranpoints = 11100
accept = 9079
rejected = 2021
matrix size = 138
fillins = 174
solver = Normal
Matrix Compiler1: 18.93 KB object code size  8.2/4.9/[2.2]
Matrix Compiler2: 15.59 KB object code size  3.6/4.8/[1.8]

