Circuit: * C:\Users\choco\OneDrive\Documents\GitHub\Tesis-2022-nervio-vago-artificial\Nervio-Vago-Artificial\Simulaciones\sim-2022\Modified-FitzHugh-Nagumo-Cell\Modified-FitzHugh-Nagumo-Cell.asc

Warning: Multiple definitions of model "2scr375p" Type: BJT
Warning: Multiple definitions of model "bc857b" Type: BJT
Warning: Multiple definitions of model "bc847c" Type: BJT
Warning: Multiple definitions of model "bc847b" Type: BJT
Direct Newton iteration for .op point succeeded.

Date: Thu Aug 25 10:54:13 2022
Total elapsed time: 0.875 seconds.

tnom = 27
temp = 27
method = modified trap
totiter = 31972
traniter = 31939
tranpoints = 13721
accept = 12379
rejected = 1342
matrix size = 29
fillins = 2
solver = Normal
Matrix Compiler1: 1.90 KB object code size  0.9/0.5/[0.3]
Matrix Compiler2: 2.45 KB object code size  0.5/0.8/[0.4]

