Circuit: * C:\Users\choco\OneDrive\Documents\GitHub\Tesis-2022-nervio-vago-artificial\Nervio-Vago-Artificial\Simulaciones-y-Pruebas-Fisicas\sim-2022\Simulacion-Unidad-(FitzHugh-Nagumo)\Compound-Action-Potential.asc

Warning: Multiple definitions of model "2scr375p" Type: BJT
Warning: Multiple definitions of model "bc857b" Type: BJT
Warning: Multiple definitions of model "bc847c" Type: BJT
Warning: Multiple definitions of model "bc847b" Type: BJT
WARNING: Less than two connections to node N002.  This node is used by V5.
Direct Newton iteration failed to find .op point.  (Use ".option noopiter" to skip.)
Starting Gmin stepping
Gmin = 10
Gmin = 1.07374
Gmin = 0.115292
Gmin = 0.0123794
Gmin = 0.00132923
Gmin = 0.000142725
Gmin = 1.5325e-005
Gmin = 1.6455e-006
Gmin = 1.76685e-007
Gmin = 1.89714e-008
Gmin = 2.03704e-009
Gmin = 2.18725e-010
Gmin = 2.34854e-011
Gmin = 2.52173e-012
Gmin = 2.70769e-013
Gmin = 0
Gmin stepping succeeded in finding the operating point.


Date: Sun Apr 02 13:41:48 2023
Total elapsed time: 44.476 seconds.

tnom = 27
temp = 27
method = modified trap
totiter = 703601
traniter = 703167
tranpoints = 168654
accept = 127532
rejected = 41122
matrix size = 141
fillins = 41
solver = Normal
Thread vector: 45.1/36.5[3] 16.3/8.9[3] 7.4/6.1[3] 1.6/6.4[1]  2592/500
Matrix Compiler1: 14.03 KB object code size  8.8/4.9/[2.2]
Matrix Compiler2: 14.08 KB object code size  5.0/7.3/[2.8]

