Circuit: * C:\Users\choco\OneDrive\Documents\GitHub\Tesis-2022-nervio-vago-artificial\Nervio-Vago-Artificial\Simulaciones-y-Pruebas-Fisicas\sim-2022\Simulacion-Unidad-(FitzHugh-Nagumo)\Modulo UN FitzHugh-Nagumo - Variacion de Parametros.asc

Warning: Multiple definitions of model "2scr375p" Type: BJT
Warning: Multiple definitions of model "bc857b" Type: BJT
Warning: Multiple definitions of model "bc847c" Type: BJT
Warning: Multiple definitions of model "bc847b" Type: BJT
WARNING: Node NC_02 is floating.
WARNING: Node NC_04 is floating.
WARNING: Node NC_06 is floating.

WARNING: Less than two connections to node NC_01.  This node is used by V7.
WARNING: Less than two connections to node NC_02.  This node is used by V7.
WARNING: Less than two connections to node NC_03.  This node is used by V8.
WARNING: Less than two connections to node NC_04.  This node is used by V8.
WARNING: Less than two connections to node NC_05.  This node is used by V6.
WARNING: Less than two connections to node NC_06.  This node is used by V6.
Direct Newton iteration for .op point succeeded.
.step cm=1e-007
.step cm=3e-007
.step cm=5e-007
.step cm=7e-007
.step cm=9e-007
.step cm=1e-006

Date: Thu Sep 22 19:35:37 2022
Total elapsed time: 0.663 seconds.

tnom = 27
temp = 27
method = modified trap
totiter = 4251
traniter = 4230
tranpoints = 2076
accept = 2055
rejected = 21
matrix size = 41
fillins = 4
solver = Normal
Matrix Compiler1: 2.30 KB object code size  1.1/0.6/[0.4]
Matrix Compiler2: 3.11 KB object code size  0.6/1.1/[0.5]

