Circuit: * C:\Users\choco\OneDrive\Documents\GitHub\Tesis-2022-nervio-vago-artificial\Nervio-Vago-Artificial\Simulaciones\sim-2022\Esquemas\Modulo de Unidad de Neurona FitzHugh-Nagumo.asc

Warning: Multiple definitions of model "2scr375p" Type: BJT
Warning: Multiple definitions of model "bc857b" Type: BJT
Warning: Multiple definitions of model "bc847c" Type: BJT
Warning: Multiple definitions of model "bc847b" Type: BJT
WARNING: Node NC_02 is floating.
WARNING: Node NC_04 is floating.

WARNING: Less than two connections to node NC_01.  This node is used by V7.
WARNING: Less than two connections to node NC_02.  This node is used by V7.
WARNING: Less than two connections to node NC_03.  This node is used by V8.
WARNING: Less than two connections to node NC_04.  This node is used by V8.
Direct Newton iteration for .op point succeeded.

Date: Thu Sep 22 17:19:48 2022
Total elapsed time: 0.730 seconds.

tnom = 27
temp = 27
method = modified trap
totiter = 7358
traniter = 7337
tranpoints = 2898
accept = 2507
rejected = 391
matrix size = 38
fillins = 4
solver = Normal
Matrix Compiler1: 2.22 KB object code size  1.3/1.0/[0.4]
Matrix Compiler2: 2.96 KB object code size  0.8/1.6/[0.6]

