Circuit: * C:\Users\choco\OneDrive\Documents\GitHub\Tesis-2022-nervio-vago-artificial\Nervio-Vago-Artificial\Simulaciones-y-Pruebas-Fisicas\sim-2022\Simulacion-Unidad-(FitzHugh-Nagumo)\Modulo UN FitzHugh-Nagumo.asc

Warning: Multiple definitions of model "2scr375p" Type: BJT
Warning: Multiple definitions of model "bc857b" Type: BJT
Warning: Multiple definitions of model "bc847c" Type: BJT
Warning: Multiple definitions of model "bc847b" Type: BJT
WARNING: Node NC_02 is floating.
WARNING: Node NC_04 is floating.
WARNING: Node NC_06 is floating.
WARNING: Node NC_08 is floating.

WARNING: Less than two connections to node NC_01.  This node is used by V1.
WARNING: Less than two connections to node NC_02.  This node is used by V1.
WARNING: Less than two connections to node NC_03.  This node is used by V7.
WARNING: Less than two connections to node NC_04.  This node is used by V7.
WARNING: Less than two connections to node NC_05.  This node is used by V8.
WARNING: Less than two connections to node NC_06.  This node is used by V8.
WARNING: Less than two connections to node NC_07.  This node is used by V6.
WARNING: Less than two connections to node NC_08.  This node is used by V6.
Direct Newton iteration for .op point succeeded.

Date: Thu Nov 24 19:10:50 2022
Total elapsed time: 46.322 seconds.

tnom = 27
temp = 27
method = modified trap
totiter = 3360828
traniter = 3360803
tranpoints = 803649
accept = 598082
rejected = 205567
matrix size = 62
fillins = 16
solver = Normal
Matrix Compiler1: 4.08 KB object code size  2.0/1.4/[0.5]
Matrix Compiler2: 4.58 KB object code size  1.0/1.7/[0.8]

