Circuit: * C:\Users\choco\OneDrive\Documents\GitHub\Tesis-2022-nervio-vago-artificial\Nervio-Vago-Artificial\Simulaciones\sim-2022\Modified-FitzHugh-Nagumo-Cell\Modulo UN FitzHugh-Nagumo.asc

Warning: Multiple definitions of model "2scr375p" Type: BJT
Warning: Multiple definitions of model "bc857b" Type: BJT
Warning: Multiple definitions of model "bc847c" Type: BJT
Warning: Multiple definitions of model "bc847b" Type: BJT
WARNING: Node NC_02 is floating.
WARNING: Node NC_04 is floating.
WARNING: Node NC_06 is floating.

WARNING: Less than two connections to node NC_01.  This node is used by V7.
WARNING: Less than two connections to node NC_02.  This node is used by V7.
WARNING: Less than two connections to node NC_03.  This node is used by V8.
WARNING: Less than two connections to node NC_04.  This node is used by V8.
WARNING: Less than two connections to node NC_05.  This node is used by V6.
WARNING: Less than two connections to node NC_06.  This node is used by V6.
Direct Newton iteration for .op point succeeded.

Date: Thu Sep 22 17:26:28 2022
Total elapsed time: 0.450 seconds.

tnom = 27
temp = 27
method = modified trap
totiter = 11726
traniter = 11705
tranpoints = 4410
accept = 3445
rejected = 965
matrix size = 41
fillins = 4
solver = Normal
Matrix Compiler1: 2.30 KB object code size  0.8/0.4/[0.3]
Matrix Compiler2: 3.11 KB object code size  0.5/0.6/[0.4]

