Circuit: * C:\Users\choco\OneDrive\Documents\GitHub\Tesis-2022-nervio-vago-artificial\Nervio-Vago-Artificial\Simulaciones-y-Pruebas-Fisicas\sim-2022\Simulacion-Unidad-(FitzHugh-Nagumo)\Pruebas etapas.asc

Warning: Multiple definitions of model "2scr375p" Type: BJT
Warning: Multiple definitions of model "bc857b" Type: BJT
Warning: Multiple definitions of model "bc847c" Type: BJT
Warning: Multiple definitions of model "bc847b" Type: BJT
WARNING: Node NC_02 is floating.
WARNING: Node NC_04 is floating.
WARNING: Node NC_06 is floating.
WARNING: Node NC_08 is floating.

WARNING: Less than two connections to node NC_01.  This node is used by V1.
WARNING: Less than two connections to node NC_02.  This node is used by V1.
WARNING: Less than two connections to node NC_03.  This node is used by V7.
WARNING: Less than two connections to node NC_04.  This node is used by V7.
WARNING: Less than two connections to node NC_05.  This node is used by V8.
WARNING: Less than two connections to node NC_06.  This node is used by V8.
WARNING: Less than two connections to node NC_07.  This node is used by V6.
WARNING: Less than two connections to node NC_08.  This node is used by V6.
Direct Newton iteration for .op point succeeded.

Date: Sun Feb 05 14:39:40 2023
Total elapsed time: 11.602 seconds.

tnom = 27
temp = 27
method = modified trap
totiter = 529802
traniter = 529759
tranpoints = 111840
accept = 82786
rejected = 29054
matrix size = 116
fillins = 95
solver = Normal
Matrix Compiler1: 13.63 KB object code size  4.0/2.1/[1.2]
Matrix Compiler2: 10.86 KB object code size  1.5/2.5/[1.0]

