Circuit: * C:\Users\choco\OneDrive\Documents\GitHub\Tesis-2022-nervio-vago-artificial\Nervio-Vago-Artificial\Simulaciones\sim-2022\Variación de Parámetros\LTspice Sim\Cm.asc

Warning: Multiple definitions of model "2scr375p" Type: BJT
Warning: Multiple definitions of model "bc857b" Type: BJT
Warning: Multiple definitions of model "bc847c" Type: BJT
Warning: Multiple definitions of model "bc847b" Type: BJT
Direct Newton iteration for .op point succeeded.
.step c=2e-007
.step c=4e-007
.step c=6e-007
.step c=8e-007
.step c=1e-006

Date: Thu Sep 22 16:20:11 2022
Total elapsed time: 8.105 seconds.

tnom = 27
temp = 27
method = modified trap
totiter = 292441
traniter = 292404
tranpoints = 146157
accept = 146096
rejected = 61
matrix size = 32
fillins = 4
solver = Normal
Matrix Compiler1: 2.07 KB object code size  0.6/0.4/[0.2]
Matrix Compiler2: off  [0.4]/0.7/0.4

