Circuit: * C:\Users\choco\OneDrive\Documents\GitHub\Tesis-2022-nervio-vago-artificial\Nervio-Vago-Artificial\Simulaciones\sim-2022\Variación de Parámetros\LTspice Sim\R1.asc

Warning: Multiple definitions of model "2scr375p" Type: BJT
Warning: Multiple definitions of model "bc857b" Type: BJT
Warning: Multiple definitions of model "bc847c" Type: BJT
Warning: Multiple definitions of model "bc847b" Type: BJT
Direct Newton iteration for .op point succeeded.
.step r=100000
.step r=200000
.step r=300000
.step r=400000
.step r=500000

Date: Thu Sep 22 16:20:33 2022
Total elapsed time: 7.861 seconds.

tnom = 27
temp = 27
method = modified trap
totiter = 292751
traniter = 292734
tranpoints = 146249
accept = 146141
rejected = 108
matrix size = 32
fillins = 4
solver = Normal
Matrix Compiler1: 2.07 KB object code size  0.7/0.4/[0.2]
Matrix Compiler2: 2.68 KB object code size  0.4/0.5/[0.3]

