Circuit: * C:\Users\choco\OneDrive\Documents\GitHub\Tesis-2022-nervio-vago-artificial\Nervio-Vago-Artificial\Simulaciones\sim-2022\Variación de Parámetros\LTspice Sim\R2.asc

Warning: Multiple definitions of model "2scr375p" Type: BJT
Warning: Multiple definitions of model "bc857b" Type: BJT
Warning: Multiple definitions of model "bc847c" Type: BJT
Warning: Multiple definitions of model "bc847b" Type: BJT
Direct Newton iteration for .op point succeeded.
.step r=1000
.step r=2000
.step r=3000
.step r=4000
.step r=5000

Date: Thu Sep 22 16:20:54 2022
Total elapsed time: 8.493 seconds.

tnom = 27
temp = 27
method = modified trap
totiter = 292864
traniter = 292839
tranpoints = 146240
accept = 146109
rejected = 131
matrix size = 32
fillins = 4
solver = Normal
Matrix Compiler1: 2.07 KB object code size  1.1/0.4/[0.2]
Matrix Compiler2: off  [0.4]/0.5/0.4

