Circuit: * C:\Users\choco\OneDrive\Documents\GitHub\Tesis-2022-nervio-vago-artificial\Nervio-Vago-Artificial\Simulaciones\sim-2022\Variación de Parámetros\LTspice Sim\R3.asc

Warning: Multiple definitions of model "2scr375p" Type: BJT
Warning: Multiple definitions of model "bc857b" Type: BJT
Warning: Multiple definitions of model "bc847c" Type: BJT
Warning: Multiple definitions of model "bc847b" Type: BJT
Direct Newton iteration for .op point succeeded.
.step r=100
.step r=300
.step r=500
.step r=700
.step r=900
.step r=1000

Date: Thu Sep 22 16:23:56 2022
Total elapsed time: 10.694 seconds.

tnom = 27
temp = 27
method = modified trap
totiter = 292753
traniter = 292722
tranpoints = 146229
accept = 146136
rejected = 93
matrix size = 32
fillins = 4
solver = Normal
Matrix Compiler1: 2.07 KB object code size  0.7/0.4/[0.2]
Matrix Compiler2: off  [0.4]/0.5/0.8

