Circuit: * C:\Users\choco\OneDrive\Documents\GitHub\Tesis-2022-nervio-vago-artificial\Nervio-Vago-Artificial\Simulaciones\sim-2022\Variación de Parámetros\LTspice Sim\RL.asc

Warning: Multiple definitions of model "2scr375p" Type: BJT
Warning: Multiple definitions of model "bc857b" Type: BJT
Warning: Multiple definitions of model "bc847c" Type: BJT
Warning: Multiple definitions of model "bc847b" Type: BJT
Direct Newton iteration for .op point succeeded.
.step r=10000
.step r=30000
.step r=50000
.step r=70000
.step r=90000
.step r=100000

Date: Thu Sep 22 16:24:37 2022
Total elapsed time: 9.623 seconds.

tnom = 27
temp = 27
method = modified trap
totiter = 292826
traniter = 292789
tranpoints = 146197
accept = 146113
rejected = 84
matrix size = 32
fillins = 4
solver = Normal
Matrix Compiler1: 2.07 KB object code size  0.7/0.4/[0.2]
Matrix Compiler2: off  [0.4]/0.6/0.4

