Circuit: * C:\Users\choco\OneDrive\Documents\GitHub\Tesis-2022-nervio-vago-artificial\Nervio-Vago-Artificial\Simulaciones\sim-2022\Variación de Parámetros\LTspice Sim\Rs.asc

Warning: Multiple definitions of model "2scr375p" Type: BJT
Warning: Multiple definitions of model "bc857b" Type: BJT
Warning: Multiple definitions of model "bc847c" Type: BJT
Warning: Multiple definitions of model "bc847b" Type: BJT
Direct Newton iteration for .op point succeeded.
.step r=50000
.step r=100000
.step r=150000
.step r=200000
.step r=250000
.step r=300000

Date: Thu Sep 22 16:25:05 2022
Total elapsed time: 9.449 seconds.

tnom = 27
temp = 27
method = modified trap
totiter = 292715
traniter = 292243
tranpoints = 146054
accept = 146030
rejected = 24
matrix size = 32
fillins = 4
solver = Normal
Matrix Compiler1: 2.07 KB object code size  0.7/0.4/[0.2]
Matrix Compiler2: off  [0.6]/0.6/4.0

