Circuit: * C:\Users\choco\OneDrive\Documents\GitHub\Tesis-2022-nervio-vago-artificial\Nervio-Vago-Artificial\Simulaciones\sim-2022\Variación de Parámetros\LTspice Sim\V1.asc

Warning: Multiple definitions of model "2scr375p" Type: BJT
Warning: Multiple definitions of model "bc857b" Type: BJT
Warning: Multiple definitions of model "bc847c" Type: BJT
Warning: Multiple definitions of model "bc847b" Type: BJT
Direct Newton iteration for .op point succeeded.
.step v=0.1
.step v=0.3
.step v=0.5
.step v=0.7
.step v=0.9
.step v=1

Date: Thu Sep 22 16:25:26 2022
Total elapsed time: 9.584 seconds.

tnom = 27
temp = 27
method = modified trap
totiter = 292138
traniter = 292114
tranpoints = 146058
accept = 146035
rejected = 23
matrix size = 32
fillins = 4
solver = Normal
Matrix Compiler1: 2.07 KB object code size  0.7/0.4/[0.2]
Matrix Compiler2: 2.68 KB object code size  0.4/0.5/[0.4]

