Circuit: * C:\Users\choco\OneDrive\Documents\GitHub\artificial-vagus-nerve\Simulations\simulations - 2021\Simulacion Nervio Vago.asc

Limiting rise time of source i§estimulador_s to 1.3e-005
Limiting fall time of source i§estimulador_s to 1.3e-005
Limiting rise time of source i§estimulador_5 to 7.5e-005
Limiting fall time of source i§estimulador_5 to 7.5e-005
.OP point found by inspection.

Date: Wed Jul 27 22:08:08 2022
Total elapsed time: 0.139 seconds.

tnom = 27
temp = 27
method = modified trap
totiter = 2532
traniter = 2532
tranpoints = 1267
accept = 1222
rejected = 45
matrix size = 8
fillins = 0
solver = Normal
Matrix Compiler1: 754 bytes object code size  0.7/0.2/[0.2]
Matrix Compiler2: 724 bytes object code size  0.3/0.3/[0.2]

