Circuit: * C:\Users\choco\OneDrive\Documents\GitHub\Tesis-2022-nervio-vago-artificial\Nervio-Vago-Artificial\Simulaciones\sim-2022\SIM1\Weak_Stimulus.asc

Warning: Multiple definitions of model "2scr375p" Type: BJT
Warning: Multiple definitions of model "bc857b" Type: BJT
Warning: Multiple definitions of model "bc847c" Type: BJT
Warning: Multiple definitions of model "bc847b" Type: BJT
WARNING: Node NC_01 is floating.
WARNING: Node NC_02 is floating.

WARNING: Less than two connections to node NC_01.  This node is used by I1.
WARNING: Less than two connections to node NC_02.  This node is used by I1.
Direct Newton iteration for .op point succeeded.

Date: Thu Sep 22 17:36:15 2022
Total elapsed time: 3.597 seconds.

tnom = 27
temp = 27
method = modified trap
totiter = 41913
traniter = 41879
tranpoints = 20613
accept = 20391
rejected = 222
matrix size = 41
fillins = 36
solver = Normal
Matrix Compiler1: 5.06 KB object code size  2.0/1.2/[0.7]
Matrix Compiler2: 3.99 KB object code size  0.8/1.5/[0.8]

