Circuit: * C:\Users\choco\OneDrive\Documents\GitHub\Tesis-2022-nervio-vago-artificial\Nervio-Vago-Artificial\Simulaciones\Simulaciones - 2022\Simulacion-Unidad-(FitzHugh-Nagumo)\Modulo-Alimentacion.asc

Direct Newton iteration for .op point succeeded.
