Circuit: * C:\Users\choco\OneDrive\Documents\GitHub\Tesis-2022-nervio-vago-artificial\Nervio-Vago-Artificial\Simulaciones-y-Pruebas-Fisicas\sim-2022\Simulacion-Unidad-(FitzHugh-Nagumo)\Variacion-de-Parametros\Draft2.asc

Warning: Multiple definitions of model "2scr375p" Type: BJT
Warning: Multiple definitions of model "bc857b" Type: BJT
Warning: Multiple definitions of model "bc847c" Type: BJT
Warning: Multiple definitions of model "bc847b" Type: BJT
WARNING: Node NC_01 is floating.

WARNING: Less than two connections to node NC_01.  This node is used by R3.
Direct Newton iteration for .op point succeeded.

Date: Tue Oct 04 21:13:55 2022
Total elapsed time: 2.328 seconds.

tnom = 27
temp = 27
method = modified trap
totiter = 60057
traniter = 60040
tranpoints = 30021
accept = 30021
rejected = 0
matrix size = 26
fillins = 0
solver = Normal
Matrix Compiler1: 1.49 KB object code size  0.5/0.3/[0.2]
Matrix Compiler2: 2.01 KB object code size  0.3/0.4/[0.3]

