Circuit: * C:\Users\choco\OneDrive\Documents\GitHub\Tesis-2022-nervio-vago-artificial\Nervio-Vago-Artificial\Simulaciones-y-Pruebas-Fisicas\sim-2022\Simulacion-Unidad-(FitzHugh-Nagumo)\Variacion-de-Parametros\Draft1.asc

Direct Newton iteration for .op point succeeded.

Date: Tue Oct 18 20:47:12 2022
Total elapsed time: 5.930 seconds.

tnom = 27
temp = 27
method = modified trap
totiter = 1027868
traniter = 1027846
tranpoints = 249103
accept = 187012
rejected = 62091
matrix size = 22
fillins = 0
solver = Normal
Matrix Compiler1: 730 bytes object code size  0.6/0.4/[0.2]
Matrix Compiler2: off  [0.3]/0.6/0.4

