Circuit: * C:\Users\choco\OneDrive\Documents\GitHub\Tesis-2022-nervio-vago-artificial\Nervio-Vago-Artificial\Simulaciones-y-Pruebas-Fisicas\sim-2022\Simulacion-Unidad-(FitzHugh-Nagumo)\Variacion-de-Parametros\RL.asc

Warning: Multiple definitions of model "2scr375p" Type: BJT
Warning: Multiple definitions of model "bc857b" Type: BJT
Warning: Multiple definitions of model "bc847c" Type: BJT
Warning: Multiple definitions of model "bc847b" Type: BJT
WARNING: Node NC_02 is floating.
WARNING: Node NC_04 is floating.
WARNING: Node NC_06 is floating.

WARNING: Less than two connections to node NC_01.  This node is used by V7.
WARNING: Less than two connections to node NC_02.  This node is used by V7.
WARNING: Less than two connections to node NC_03.  This node is used by V8.
WARNING: Less than two connections to node NC_04.  This node is used by V8.
WARNING: Less than two connections to node NC_05.  This node is used by V6.
WARNING: Less than two connections to node NC_06.  This node is used by V6.
Direct Newton iteration for .op point succeeded.
.step rl=20000
.step rl=30000
.step rl=40000
.step rl=50000
.step rl=100000

Date: Sat Oct 22 10:01:51 2022
Total elapsed time: 1.027 seconds.

tnom = 27
temp = 27
method = modified trap
totiter = 3630
traniter = 3609
tranpoints = 1723
accept = 1668
rejected = 55
matrix size = 41
fillins = 4
solver = Normal
Matrix Compiler1: 2.30 KB object code size  1.4/1.1/[0.3]
Matrix Compiler2: 3.11 KB object code size  0.9/0.8/[0.4]

