Circuit: * C:\Users\choco\OneDrive\Documents\GitHub\Tesis-2022-nervio-vago-artificial\Nervio-Vago-Artificial\Simulaciones-y-Pruebas-Fisicas\sim-2022\Simulacion-Unidad-(FitzHugh-Nagumo)\Variacion-de-Parametros\Rs.asc

Warning: Multiple definitions of model "2scr375p" Type: BJT
Warning: Multiple definitions of model "bc857b" Type: BJT
Warning: Multiple definitions of model "bc847c" Type: BJT
Warning: Multiple definitions of model "bc847b" Type: BJT
WARNING: Node NC_02 is floating.
WARNING: Node NC_04 is floating.
WARNING: Node NC_06 is floating.

WARNING: Less than two connections to node NC_01.  This node is used by V7.
WARNING: Less than two connections to node NC_02.  This node is used by V7.
WARNING: Less than two connections to node NC_03.  This node is used by V8.
WARNING: Less than two connections to node NC_04.  This node is used by V8.
WARNING: Less than two connections to node NC_05.  This node is used by V6.
WARNING: Less than two connections to node NC_06.  This node is used by V6.
Direct Newton iteration for .op point succeeded.
.step rs=30000
.step rs=60000
.step rs=90000
.step rs=120000
.step rs=150000

Date: Sat Oct 22 10:03:07 2022
Total elapsed time: 0.796 seconds.

tnom = 27
temp = 27
method = modified trap
totiter = 3242
traniter = 3222
tranpoints = 1538
accept = 1495
rejected = 43
matrix size = 41
fillins = 4
solver = Normal
Matrix Compiler1:     135 opcodes  1.5/1.0/[0.9]
Matrix Compiler2: off  [0.8]/1.1/1.0

