Circuit: * C:\Users\choco\OneDrive\Documents\GitHub\Tesis-2022-nervio-vago-artificial\Nervio-Vago-Artificial\Simulaciones-y-Pruebas-Fisicas\sim-2022\Simulacion-Axon\Axon-Modular - Compound Action Potential.asc

Warning: Multiple definitions of model "2scr375p" Type: BJT
Warning: Multiple definitions of model "bc857b" Type: BJT
Warning: Multiple definitions of model "bc847c" Type: BJT
Warning: Multiple definitions of model "bc847b" Type: BJT
V3: Removing PWL point (0.265,0)
WARNING: Node NC_02 is floating.
WARNING: Node NC_06 is floating.

WARNING: Less than two connections to node NC_01.  This node is used by V1.
WARNING: Less than two connections to node NC_02.  This node is used by V1.
WARNING: Less than two connections to node NC_03.  This node is used by R:FHN5:O.
WARNING: Less than two connections to node NC_04.  This node is used by R:FHN5:I.
WARNING: Less than two connections to node NC_05.  This node is used by V2.
WARNING: Less than two connections to node NC_06.  This node is used by V2.
WARNING: Less than two connections to node NC_07.  This node is used by R:FHN10:O.
WARNING: Less than two connections to node NC_08.  This node is used by R:FHN10:I.
Direct Newton iteration failed to find .op point.  (Use ".option noopiter" to skip.)
Starting Gmin stepping
Increasing initial diagonal Gmin to 100
Gmin = 100
Gmin = 10.7374
Gmin = 1.15292
Gmin = 0.123794
Gmin = 0.0132923
Gmin = 0.00142725
Gmin = 0.00015325
Gmin = 1.6455e-005
Gmin = 1.76685e-006
vernier = 0.5
Gmin = 2.96428e-007
vernier = 0.25
vernier = 0.125
vernier = 0.0625
vernier = 0.03125
vernier = 0.0416667
Gmin = 2.82176e-007
vernier = 0.0555555
Gmin = 2.50072e-007
vernier = 0.074074
vernier = 0.0987653
Gmin = 2.05344e-007
vernier = 0.131687
vernier = 0.175583
Gmin = 1.50536e-007
vernier = 0.23411
Gmin = 9.13787e-008
vernier = 0.312147
vernier = 0.416196
Gmin = 4.08674e-008
vernier = 0.554928
vernier = 0.739903
Gmin = 1.17537e-008
vernier = 0.986537
Gmin = 1.67082e-009
vernier = 0.493269
Gmin = 0
Gmin stepping aborted per request.

Starting source stepping with srcstepmethod=0
Source Step = 3.0303%
Source Step = 33.3333%
Source stepping aborted.
Starting source stepping with srcstepmethod=1
Source Step = 3.0303%
Source Step = 33.3333%
Source Step = 63.6364%
Source Step = 72.7273%
vernier = 0.0625
Source stepping aborted.
Pseudo Transient failed in finding the operating point at 2.97851 s.
Trouble finding operating point....skipping operating point for Transient analysis.
Heightened Def Con from 0.27247 to 0.27247

Date: Thu Feb 16 21:06:47 2023
Total elapsed time: 5.451 seconds.

tnom = 27
temp = 27
method = modified trap
totiter = 11503
traniter = 7173
tranpoints = 2312
accept = 1718
rejected = 612
matrix size = 337
fillins = 535
solver = Normal
Thread vector: 99.8/30.2[3] 19.4/15.1[3] 9.4/12.5[1] 3.2/32.9[1]  2592/500
Matrix Compiler1: 53.63 KB object code size  49.0/14.9/[7.4]
Matrix Compiler2: 38.41 KB object code size  24.4/27.6/[6.5]

