Circuit: * C:\Users\choco\OneDrive\Documents\GitHub\Tesis-2022-nervio-vago-artificial\Nervio-Vago-Artificial\Simulaciones-y-Pruebas-Fisicas\sim-2022\Simulacion-Axon\Axon-Modular - 2 Unidades.asc

Warning: Multiple definitions of model "2scr375p" Type: BJT
Warning: Multiple definitions of model "bc857b" Type: BJT
Warning: Multiple definitions of model "bc847c" Type: BJT
Warning: Multiple definitions of model "bc847b" Type: BJT
WARNING: Node NC_04 is floating.
WARNING: Node NC_06 is floating.

WARNING: Less than two connections to node NC_01.  This node is used by R:FHN2:O.
WARNING: Less than two connections to node NC_02.  This node is used by R:FHN2:I.
WARNING: Less than two connections to node NC_03.  This node is used by V1.
WARNING: Less than two connections to node NC_04.  This node is used by V1.
WARNING: Less than two connections to node NC_05.  This node is used by V2.
WARNING: Less than two connections to node NC_06.  This node is used by V2.
Direct Newton iteration for .op point succeeded.

Date: Wed Mar 01 13:37:23 2023
Total elapsed time: 0.578 seconds.

tnom = 27
temp = 27
method = modified trap
totiter = 7517
traniter = 7495
tranpoints = 2714
accept = 2141
rejected = 573
matrix size = 71
fillins = 40
solver = Normal
Matrix Compiler1: 6.39 KB object code size  1.9/2.1/[0.9]
Matrix Compiler2: 6.40 KB object code size  1.1/2.7/[0.7]

