Circuit: * C:\Users\choco\OneDrive\Documents\GitHub\Tesis-2022-nervio-vago-artificial\Nervio-Vago-Artificial\Simulaciones-y-Pruebas-Fisicas\sim-2022\Simulacion-Axon\Axon-Modular - 5 Unidades.asc

Warning: Multiple definitions of model "2scr375p" Type: BJT
Warning: Multiple definitions of model "bc857b" Type: BJT
Warning: Multiple definitions of model "bc847c" Type: BJT
Warning: Multiple definitions of model "bc847b" Type: BJT
WARNING: Node NC_02 is floating.
WARNING: Node NC_06 is floating.

WARNING: Less than two connections to node NC_01.  This node is used by V1.
WARNING: Less than two connections to node NC_02.  This node is used by V1.
WARNING: Less than two connections to node NC_03.  This node is used by R:FHN5:O.
WARNING: Less than two connections to node NC_04.  This node is used by R:FHN5:I.
WARNING: Less than two connections to node NC_05.  This node is used by V2.
WARNING: Less than two connections to node NC_06.  This node is used by V2.
Direct Newton iteration failed to find .op point.  (Use ".option noopiter" to skip.)
Starting Gmin stepping
Gmin = 10
Gmin = 1.07374
Gmin = 0.115292
Gmin = 0.0123794
Gmin = 0.00132923
Gmin = 0.000142725
Gmin = 1.5325e-005
Gmin = 1.6455e-006
Gmin = 1.76685e-007
Gmin = 1.89714e-008
Gmin = 2.03704e-009
Gmin = 2.18725e-010
Gmin = 2.34854e-011
Gmin = 2.52173e-012
Gmin = 2.70769e-013
Gmin = 0
Gmin stepping succeeded in finding the operating point.

Heightened Def Con from 0.005 to 0.005
Heightened Def Con from 0.005 to 0.005
Heightened Def Con from 0.34 to 0.34

Date: Thu Sep 22 19:11:10 2022
Total elapsed time: 0.911 seconds.

tnom = 27
temp = 27
method = modified trap
totiter = 7357
traniter = 6787
tranpoints = 2429
accept = 1958
rejected = 474
matrix size = 164
fillins = 201
solver = Normal
Thread vector: 39.2/8.2[2] 16.8/10.0[2] 2.2/5.4[1] 1.6/3.3[1]  2592/500
Matrix Compiler1: 22.80 KB object code size  30.5/15.8/[3.1]
Matrix Compiler2: 17.36 KB object code size  3.2/4.1/[1.9]

