Circuit: * C:\Users\choco\OneDrive\Documents\GitHub\Tesis-2022-nervio-vago-artificial\Nervio-Vago-Artificial\Simulaciones-y-Pruebas-Fisicas\sim-2022\Simulacion-Axon\Axon-Modular - 5 Unidades.asc

Warning: Multiple definitions of model "2scr375p" Type: BJT
Warning: Multiple definitions of model "bc857b" Type: BJT
Warning: Multiple definitions of model "bc847c" Type: BJT
Warning: Multiple definitions of model "bc847b" Type: BJT
WARNING: Node NC_02 is floating.
WARNING: Node NC_06 is floating.

WARNING: Less than two connections to node NC_01.  This node is used by V1.
WARNING: Less than two connections to node NC_02.  This node is used by V1.
WARNING: Less than two connections to node NC_03.  This node is used by R:FHN5:O.
WARNING: Less than two connections to node NC_04.  This node is used by R:FHN5:I.
WARNING: Less than two connections to node NC_05.  This node is used by V2.
WARNING: Less than two connections to node NC_06.  This node is used by V2.
Direct Newton iteration failed to find .op point.  (Use ".option noopiter" to skip.)
Starting Gmin stepping
Gmin = 10
Gmin = 1.07374
Gmin = 0.115292
Gmin = 0.0123794
Gmin = 0.00132923
Gmin = 0.000142725
Gmin = 1.5325e-005
Gmin = 1.6455e-006
Gmin = 1.76685e-007
Gmin = 1.89714e-008
Gmin = 2.03704e-009
Gmin = 2.18725e-010
Gmin = 2.34854e-011
Gmin = 2.52173e-012
Gmin = 2.70769e-013
Gmin = 0
Gmin stepping succeeded in finding the operating point.

Heightened Def Con from 0.005 to 0.005
Heightened Def Con from 0.265 to 0.265
Heightened Def Con from 0.275 to 0.275
Heightened Def Con from 0.34 to 0.34

Date: Wed Feb 15 17:52:15 2023
Total elapsed time: 0.893 seconds.

tnom = 27
temp = 27
method = modified trap
totiter = 7412
traniter = 6842
tranpoints = 2414
accept = 1953
rejected = 465
matrix size = 164
fillins = 201
solver = Normal
Thread vector: 45.5/33.7[2] 15.9/12.8[2] 5.8/4.6[2] 1.4/906.3[1]  2592/500
Matrix Compiler1: 22.80 KB object code size  11.6/7.3/[2.9]
Matrix Compiler2: 17.36 KB object code size  3.8/5.9/[1.8]

