Circuit: * C:\Users\choco\OneDrive\Documents\GitHub\Tesis-2022-nervio-vago-artificial\Nervio-Vago-Artificial\Simulaciones-y-Pruebas-Fisicas\sim-2022\Simulacion-Axon\Draft1.asc

Warning: Multiple definitions of model "2scr375p" Type: BJT
Warning: Multiple definitions of model "bc857b" Type: BJT
Warning: Multiple definitions of model "bc847c" Type: BJT
Warning: Multiple definitions of model "bc847b" Type: BJT
R1: both pins shorted together -- ignoring.
WARNING: Node N004 is floating.

WARNING: Less than two connections to node N005.  This node is used by R2.
Direct Newton iteration for .op point succeeded.

Date: Tue Feb 14 20:09:02 2023
Total elapsed time: 0.359 seconds.

tnom = 27
temp = 27
method = modified trap
totiter = 20060
traniter = 20040
tranpoints = 10021
accept = 10021
rejected = 0
matrix size = 9
fillins = 0
solver = Normal
Matrix Compiler1: 510 bytes object code size  0.3/0.2/[0.2]
Matrix Compiler2: 681 bytes object code size  0.2/0.2/[0.2]

