Circuit: * C:\Users\choco\OneDrive\Documents\GitHub\Tesis-2022-nervio-vago-artificial\Nervio-Vago-Artificial\Simulaciones-y-Pruebas-Fisicas\sim-2022\Simulacion-Axon\Modulo-Alimentacion.asc

Direct Newton iteration for .op point succeeded.

Date: Tue Oct 25 19:12:38 2022
Total elapsed time: 1.869 seconds.

tnom = 27
temp = 27
method = modified trap
totiter = 347741
traniter = 347719
tranpoints = 82349
accept = 60798
rejected = 21551
matrix size = 22
fillins = 0
solver = Normal
Matrix Compiler1: 730 bytes object code size  0.5/0.4/[0.2]
Matrix Compiler2: 1.35 KB object code size  0.4/1.7/[0.3]

