Circuit: * C:\Users\choco\OneDrive\Documents\GitHub\Tesis-2022-nervio-vago-artificial\Nervio-Vago-Artificial\Simulaciones\Simulaciones - 2022\Simulacion-Axon\Axon-Modular - 5 Unidades.asc

WARNING: Node NC_02 is floating.
WARNING: Node NC_04 is floating.

WARNING: Less than two connections to node NC_01.  This node is used by V1.
WARNING: Less than two connections to node NC_02.  This node is used by V1.
WARNING: Less than two connections to node NC_03.  This node is used by V2.
WARNING: Less than two connections to node NC_04.  This node is used by V2.
Direct Newton iteration for .op point succeeded.

Date: Fri Jun 23 18:56:55 2023
Total elapsed time: 0.579 seconds.

tnom = 27
temp = 27
method = modified trap
totiter = 6392
traniter = 6364
tranpoints = 2233
accept = 1793
rejected = 440
matrix size = 172
fillins = 180
solver = Normal
Thread vector: 25.0/14.8[2] 11.5/8.0[2] 3.4/4.9[1] 3.3/5.2[1]  2592/500
Matrix Compiler1: 21.20 KB object code size  12.4/8.1/[3.6]
Matrix Compiler2: 17.11 KB object code size  5.8/6.4/[3.5]

