Circuit: * C:\Users\choco\OneDrive\Documents\GitHub\Tesis-2022-nervio-vago-artificial\Nervio-Vago-Artificial\Simulaciones\Simulaciones - 2022\Simulacion-Unidad-(FitzHugh-Nagumo)\Compound-Action-Potential.asc

Direct Newton iteration failed to find .op point.  (Use ".option noopiter" to skip.)
Starting Gmin stepping
Gmin = 10
Gmin = 1.07374
Gmin = 0.115292
Gmin = 0.0123794
Gmin = 0.00132923
Gmin = 0.000142725
Gmin = 1.5325e-005
Gmin = 1.6455e-006
Gmin = 1.76685e-007
Gmin = 1.89714e-008
Gmin = 2.03704e-009
Gmin = 2.18725e-010
Gmin = 2.34854e-011
Gmin = 2.52173e-012
Gmin = 2.70769e-013
Gmin = 0
Gmin stepping succeeded in finding the operating point.


Date: Fri Jun 23 20:15:25 2023
Total elapsed time: 9.760 seconds.

tnom = 27
temp = 27
method = modified trap
totiter = 145904
traniter = 145470
tranpoints = 35049
accept = 26592
rejected = 8457
matrix size = 126
fillins = 34
solver = Normal
Thread vector: 91.8/51.4[3] 22.3/18.9[3] 13.4/15.4[1] 1.0/4.3[1]  2592/500
Matrix Compiler1: 12.58 KB object code size  24.2/5.2/[2.0]
Matrix Compiler2: 12.72 KB object code size  3.5/5.8/[1.5]

