Circuit: * C:\Users\choco\OneDrive\Documents\GitHub\Tesis-2022-nervio-vago-artificial\Nervio-Vago-Artificial\Simulaciones\Simulaciones - 2022\Simulacion-Unidad-(FitzHugh-Nagumo)\Pruebas etapas.asc

WARNING: Node NC_02 is floating.
WARNING: Node NC_04 is floating.
WARNING: Node NC_06 is floating.

WARNING: Less than two connections to node NC_01.  This node is used by V7.
WARNING: Less than two connections to node NC_02.  This node is used by V7.
WARNING: Less than two connections to node NC_03.  This node is used by V8.
WARNING: Less than two connections to node NC_04.  This node is used by V8.
WARNING: Less than two connections to node NC_05.  This node is used by V6.
WARNING: Less than two connections to node NC_06.  This node is used by V6.
Direct Newton iteration for .op point succeeded.

Date: Fri Jun 23 20:00:43 2023
Total elapsed time: 13.365 seconds.

tnom = 27
temp = 27
method = modified trap
totiter = 417327
traniter = 417298
tranpoints = 100043
accept = 73789
rejected = 26254
matrix size = 113
fillins = 100
solver = Normal
Matrix Compiler1: 13.93 KB object code size  6.9/3.6/[2.8]
Matrix Compiler2: 10.86 KB object code size  2.5/5.8/[1.5]

