Circuit: * C:\Users\choco\OneDrive\Documents\GitHub\Tesis-2022-nervio-vago-artificial\Nervio-Vago-Artificial\Simulaciones\Simulaciones - 2022\Simulacion-Unidad-(FitzHugh-Nagumo)\Variacion-de-Parametros\Cm.asc

WARNING: Node NC_02 is floating.
WARNING: Node NC_04 is floating.
WARNING: Node NC_06 is floating.

WARNING: Less than two connections to node NC_01.  This node is used by V7.
WARNING: Less than two connections to node NC_02.  This node is used by V7.
WARNING: Less than two connections to node NC_03.  This node is used by V8.
WARNING: Less than two connections to node NC_04.  This node is used by V8.
WARNING: Less than two connections to node NC_05.  This node is used by V6.
WARNING: Less than two connections to node NC_06.  This node is used by V6.
Direct Newton iteration for .op point succeeded.
.step cm=1e-007
.step cm=3e-007
.step cm=5e-007
.step cm=7e-007
.step cm=9e-007
.step cm=1e-006

Date: Fri Jun 23 19:54:05 2023
Total elapsed time: 1.582 seconds.

tnom = 27
temp = 27
method = modified trap
totiter = 4251
traniter = 4230
tranpoints = 2076
accept = 2055
rejected = 21
matrix size = 41
fillins = 4
solver = Normal
Matrix Compiler1: 2.30 KB object code size  1.8/1.0/[0.4]
Matrix Compiler2: 3.11 KB object code size  1.2/1.2/[0.6]

