Circuit: * C:\Users\choco\OneDrive\Documents\GitHub\Tesis-2022-nervio-vago-artificial\Nervio-Vago-Artificial\Simulaciones-y-Pruebas-Fisicas\sim-2022\Simulacion-Unidad-(FitzHugh-Nagumo)\Variacion-de-Parametros\R1.asc

Warning: Multiple definitions of model "2scr375p" Type: BJT
Warning: Multiple definitions of model "bc857b" Type: BJT
Warning: Multiple definitions of model "bc847c" Type: BJT
Warning: Multiple definitions of model "bc847b" Type: BJT
WARNING: Node NC_02 is floating.
WARNING: Node NC_04 is floating.
WARNING: Node NC_06 is floating.

WARNING: Less than two connections to node NC_01.  This node is used by V7.
WARNING: Less than two connections to node NC_02.  This node is used by V7.
WARNING: Less than two connections to node NC_03.  This node is used by V8.
WARNING: Less than two connections to node NC_04.  This node is used by V8.
WARNING: Less than two connections to node NC_05.  This node is used by V6.
WARNING: Less than two connections to node NC_06.  This node is used by V6.
Direct Newton iteration for .op point succeeded.
.step r1=100000
.step r1=150000
.step r1=200000
.step r1=250000
.step r1=300000
.step r1=350000

Date: Sat Oct 22 09:59:38 2022
Total elapsed time: 0.477 seconds.

tnom = 27
temp = 27
method = modified trap
totiter = 3624
traniter = 3599
tranpoints = 1719
accept = 1663
rejected = 56
matrix size = 41
fillins = 4
solver = Normal
Matrix Compiler1: 2.30 KB object code size  0.7/0.5/[0.4]
Matrix Compiler2: off  [0.5]/1.0/0.6

