Circuit: * C:\Users\choco\OneDrive\Documents\GitHub\Tesis-2022-nervio-vago-artificial\Nervio-Vago-Artificial\Simulaciones\Simulaciones - 2022\Simulacion-Unidad-(FitzHugh-Nagumo)\Variacion-de-Parametros\Rs.asc

WARNING: Node NC_02 is floating.
WARNING: Node NC_04 is floating.
WARNING: Node NC_06 is floating.

WARNING: Less than two connections to node NC_01.  This node is used by V7.
WARNING: Less than two connections to node NC_02.  This node is used by V7.
WARNING: Less than two connections to node NC_03.  This node is used by V8.
WARNING: Less than two connections to node NC_04.  This node is used by V8.
WARNING: Less than two connections to node NC_05.  This node is used by V6.
WARNING: Less than two connections to node NC_06.  This node is used by V6.
Direct Newton iteration for .op point succeeded.
.step rs=30000
.step rs=60000
.step rs=90000
.step rs=120000
.step rs=150000

Date: Fri Jun 23 19:54:20 2023
Total elapsed time: 1.332 seconds.

tnom = 27
temp = 27
method = modified trap
totiter = 3242
traniter = 3222
tranpoints = 1538
accept = 1495
rejected = 43
matrix size = 41
fillins = 4
solver = Normal
Matrix Compiler1: 2.30 KB object code size  2.1/0.7/[0.4]
Matrix Compiler2: 3.11 KB object code size  0.7/0.9/[0.6]

